
clock {
	timezone EST+5EDT;
	timestamp '2010-01-01 6:00:00';
	stoptime '2010-01-01 12:00:00';
	
}

module powerflow;
module generators;
module tape;
module climate;

module powerflow{
	solver_method NR;
	//acceleration_factor 1.4;
	default_maximum_voltage_error 1e-9;
};

object climate{
	name MyClimate;
	tmyfile WA-Seattle.tmy2;
	//reader CsvReader;
	object recorder {
		file climate_out.csv;
		interval 1800;
		limit 60;
		property temperature,wind_speed;
	};
};

object windclass {
	name test_wdg;
	model_type LOGISTIC;
	 pA 1.9212;
	 pB 4.6760;
	 pC 7.3674;
	 pD 144.1510;
	 pE 0.4743;
	 cut_in 3.5;
	 cut_out 25;

	object recorder {
		file WT_out.csv;
		interval 900;
		limit 20000;
		property power_out;
	};
};
